# created with PyMOL 2.5.2
@<TRIPOS>MOLECULE
Conf_0 frag_64
8 8 8                   
SMALL
USER_CHARGES
@<TRIPOS>ATOM
1	   O	0.000	0.000	0.000	O.3	1	UNK1	0.000	WATER
2	   C	1.252	0.000	0.000	C.3	2	UNK2	0.000	
3	   C	2.029	0.000	1.219	C.3	3	UNK3	0.000	
4	   C	2.888	-1.026	1.471	C.3	4	UNK4	0.000	
5	   H	1.764	-0.018	-0.956	 H	5	UNK5	0.000	
6	   H	3.110	-0.132	1.210	 H	6	UNK6	0.000	
7	   H	2.911	-1.890	0.806	 H	7	UNK7	0.000	
8	   H	3.491	-1.061	2.334	 H	8	UNK8	0.000	
@<TRIPOS>BOND
1 1 2 1
2 2 3 1
3 2 5 1
4 3 4 1
5 3 6 1
6 4 6 1
7 4 7 1
8 4 8 1
@<TRIPOS>SUBSTRUCTURE
1	UNK1	1	GROUP	1 ****	UNK
2	UNK2	2	GROUP	1 ****	UNK
3	UNK3	3	GROUP	1 ****	UNK
4	UNK4	4	GROUP	1 ****	UNK
5	UNK5	5	GROUP	1 ****	UNK
6	UNK6	6	GROUP	1 ****	UNK
7	UNK7	7	GROUP	1 ****	UNK
8	UNK8	8	GROUP	1 ****	UNK
