# created with PyMOL 2.5.2
@<TRIPOS>MOLECULE
frag_64
8 7 8                   
SMALL
USER_CHARGES
@<TRIPOS>ATOM
1	   O	-1.209	-1.221	-1.290	O.3	1	UNK1	0.000	WATER
2	   C	-0.103	-1.465	-0.757	C.3	2	UNK2	0.000	
3	   C	0.555	-0.532	0.130	C.3	3	UNK3	0.000	
4	   C	-0.009	0.684	0.368	C.3	4	UNK4	0.000	
5	   H	0.364	-2.422	-0.962	 H	5	UNK5	0.000	
6	   H	1.449	-0.805	0.689	 H	6	UNK6	0.000	
7	   H	-0.896	0.988	-0.187	 H	7	UNK7	0.000	
8	   H	0.420	1.389	1.022	 H	8	UNK8	0.000	
@<TRIPOS>BOND
1 1 2 1
2 2 3 1
3 2 5 1
4 3 4 1
5 3 6 1
6 4 7 1
7 4 8 1
@<TRIPOS>SUBSTRUCTURE
1	UNK1	1	GROUP	1 ****	UNK
2	UNK2	2	GROUP	1 ****	UNK
3	UNK3	3	GROUP	1 ****	UNK
4	UNK4	4	GROUP	1 ****	UNK
5	UNK5	5	GROUP	1 ****	UNK
6	UNK6	6	GROUP	1 ****	UNK
7	UNK7	7	GROUP	1 ****	UNK
8	UNK8	8	GROUP	1 ****	UNK
